[General]
network = SimpleNet
sim-time-limit = 100s

*.numNodes = 50
**.arp.typename = "GlobalArp"

*.radioMedium.typename = "ApskScalarRadioMedium"
*.radioMedium.backgroundNoise.power = -90dBm
*.radioMedium.mediumLimitCache.centerFrequency = 2GHz

*.host*.hasStatus = true
*.visualizer.energyStorageVisualizer.displayEnergyStorages = true

*.configurator.config = xmldoc ("address.xml")

*.baseStation.typename = "LEACHbs"
*.host*.typename = "LEACHnode"
*.host*.LEACHnode.clusterHeadPercentage = 0.5
**.host*.energyStorage.nominalCapacity = 600J

*.host*.mobility.typename = "StationaryMobility"
*.host[*].mobility.initFromDisplayString = false

**.constraintAreaMinX = 100m
**.constraintAreaMaxX = 480m
**.constraintAreaMinY = 100m
**.constraintAreaMaxY = 800m

*.host*.energyStorage.typename = "SimpleEpEnergyStorage"
*.host[*].energyStorage.initialCapacity = 50J

# Sets radio parameters for nodes
*.host*.wlan[0].typename = "Ieee802154NarrowbandInterface"
*.host*.wlan[0].radio.typename = "ApskScalarRadio"
*.host*.wlan[0].radio.centerFrequency = 2GHz
*.host*.wlan[0].radio.bandwidth = 2MHz
*.host*.wlan[0].radio.transmitter.power = 1.4mW
*.host*.wlan[0].radio.transmitter.preambleDuration = 10us
*.host*.wlan[0].radio.transmitter.headerLength = 8B
*.host*.wlan[0].radio.receiver.sensitivity = -85dBm
*.host*.wlan[0].radio.receiver.energyDetection = -85dBm
*.host*.wlan[0].radio.receiver.snirThreshold = 4dB
*.host*.wlan[0].radio.displayCommunicationRange = true

# Sets radio parameters for base station
*.baseStation.wlan[0].typename = "Ieee802154NarrowbandInterface"
*.baseStation.wlan[0].radio.typename = "ApskScalarRadio"
*.baseStation.wlan[0].radio.centerFrequency = 2GHz
*.baseStation.wlan[0].radio.bandwidth = 2MHz
*.baseStation.wlan[0].radio.transmitter.power = 1.4mW
*.baseStation.wlan[0].radio.transmitter.preambleDuration = 10us
*.baseStation.wlan[0].radio.transmitter.headerLength = 8B
*.baseStation.wlan[0].radio.receiver.sensitivity = -85dBm
*.baseStation.wlan[0].radio.receiver.energyDetection = -85dBm
*.baseStation.wlan[0].radio.receiver.snirThreshold = 4dB
*.baseStation.wlan[0].radio.displayCommunicationRange = true

*.host*.**.bitrate = 1Mbps
*.baseStation.**.bitrate = 1Mbps

*.host[*].energyManagement.typename = "SimpleEpEnergyManagement"
*.host[*].energyManagement.nodeShutdownCapacity = 1J

# Sets battery parameters for nodes
*.host*.wlan[0].radio.energyConsumer.typename = "StateBasedEpEnergyConsumer"
*.host*.wlan[0].radio.energyConsumer.offPowerConsumption = 0mW
*.host*.wlan[0].radio.energyConsumer.sleepPowerConsumption = 1mW
*.host*.wlan[0].radio.energyConsumer.switchingPowerConsumption = 1mW
*.host*.wlan[0].radio.energyConsumer.receiverIdlePowerConsumption = 2mW
*.host*.wlan[0].radio.energyConsumer.receiverBusyPowerConsumption = 5mW
*.host*.wlan[0].radio.energyConsumer.receiverReceivingPowerConsumption = 10mW
*.host*.wlan[0].radio.energyConsumer.transmitterIdlePowerConsumption = 2mW
*.host*.wlan[0].radio.energyConsumer.transmitterTransmittingPowerConsumption = 100mW

*.host*.wlan[0].radio.displayInterferenceRange = true
*.radioMedium.pathLoss.typename = "FreeSpacePathLoss"
*.host*.wlan[*].radio.bitErrorRate.result-recording-modes = default,+vector