#-----------------------------------------------------------------------------
[Config Wireless01]
description = Two hosts communicating wirelessly
network = WirelessA
sim-time-limit = 40s

*.host*.ipv4.arp.typename = "GlobalArp"

*.hostA.numApps = 1
*.hostA.app[0].typename = "SenderUdpApp"
*.hostA.app[0].destAddresses = "hostB"
*.hostA.app[0].destPort = 5000
*.hostA.app[0].messageLength = 1000B
*.hostA.app[0].sendInterval = exponential(12ms)
*.hostA.app[0].packetName = "UDPData"
*.hostA.app[0].stopTime = 2.0s
*.hostA.app[0].varName="x"

*.hostB.numApps = 1
*.hostB.app[0].typename = "SummerUdpApp"
*.hostB.app[0].localPort = 5000
*.hostB.app[0].destPort = 5000
*.hostB.app[0].messageLength = 1000B
*.hostB.app[0].destAddresses = "hostA"
*.host*.wlan[0].typename = "AckingWirelessInterface"
*.host*.wlan[0].mac.useAck = false
*.host*.wlan[0].mac.fullDuplex = false
*.host*.wlan[0].radio.transmitter.communicationRange = 500m
*.host*.wlan[0].radio.receiver.ignoreInterference = true
*.host*.wlan[0].mac.headerLength = 23B

*.host*.**.bitrate = 1Mbps

#-----------------------------------------------------------------------------
[Config Wireless02]
description = Setting up some animations
extends = Wireless01

*.hostA.wlan[0].radio.displayCommunicationRange = true

*.visualizer.sceneVisualizer.descriptionFigure = "title"

*.visualizer.mediumVisualizer.displaySignals = true

*.visualizer.physicalLinkVisualizer.displayLinks = true
*.visualizer.physicalLinkVisualizer.packetFilter = "UDPData*"

#-----------------------------------------------------------------------------
[Config Wireless03]
description = Adding more nodes and decreasing the communication range
extends = Wireless02


*.host*.wlan[0].radio.transmitter.communicationRange = 200m

*.host*.wlan[0].radio.displayCommunicationRange = true

#-----------------------------------------------------------------------------
[Config Wireless04]
description = Setting up static routing
extends = Wireless03

*.host*.forwarding = true

*.hostA.app[0].destAddresses = "hostE"
*.hostE.numApps = 1
*.hostE.app[0].typename = "SummerUdpApp"
*.hostE.app[0].localPort = 5000
*.hostE.app[0].destPort = 5000
*.hostE.app[0].messageLength = 1000B
*.hostE.app[0].destAddresses = "hostA"
*.hostE.app[0].checkEvenOdd = true


*.hostB.app[0].typename = "SenderUdpApp"
*.hostB.app[0].destAddresses = "hostE"
*.hostB.app[0].destPort = 5000
*.hostB.app[0].messageLength = 1000B
*.hostB.app[0].sendInterval = exponential(12ms)
*.hostB.app[0].packetName = "Y-Data"
*.hostB.app[0].stopTime = 2.0s
*.hostB.app[0].varName = "y"


*.configurator.config = xmldoc("config.xml")
*.configurator.optimizeRoutes = true
*.host*.ipv4.routingTable.netmaskRoutes = ""

*.visualizer.physicalLinkVisualizer.displayLinks = true
*.visualizer.dataLinkVisualizer.displayLinks = true
*.visualizer.networkRouteVisualizer.displayRoutes = true
*.visualizer.*LinkVisualizer.lineShift = 0
*.visualizer.networkRouteVisualizer.lineShift = 0
*.visualizer.networkRouteVisualizer.packetFilter = "UDPData*"

#-----------------------------------------------------------------------------


#-----------------------------------------------------------------------------
[Config Wireless05]
description = Taking interference into account
extends = Wireless04

*.host*.wlan[0].radio.receiver.ignoreInterference = false
*.host*.wlan[0].radio.transmitter.interferenceRange = 500m

*.hostA.wlan[0].radio.displayInterferenceRange = true

*.visualizer.dataLinkVisualizer.packetFilter = ""

#-----------------------------------------------------------------------------
[Config Wireless06]
description = Using CSMA to better utilize the medium
extends = Wireless05

*.host*.wlan[0].typename = "WirelessInterface"
*.host*.wlan[0].radio.typename = "UnitDiskRadio"
*.host*.wlan[0].mac.typename = "CsmaCaMac"
*.host*.wlan[0].mac.ackTimeout = 300us
*.host*.wlan[0].queue.typename = "DropTailQueue"
*.host*.wlan[0].queue.packetCapacity = -1

#-----------------------------------------------------------------------------
[Config Wireless07]
description = Turning on ACKs in CSMA
extends = Wireless06

*.host*.wlan[0].mac.useAck = true



*.host*.wlan[0].radio.energyConsumer.typename = "StateBasedEpEnergyConsumer"
*.host*.wlan[0].radio.energyConsumer.offPowerConsumption = 0mW
*.host*.wlan[0].radio.energyConsumer.sleepPowerConsumption = 1mW
*.host*.wlan[0].radio.energyConsumer.switchingPowerConsumption = 1mW
*.host*.wlan[0].radio.energyConsumer.receiverIdlePowerConsumption = 2mW
*.host*.wlan[0].radio.energyConsumer.receiverBusyPowerConsumption = 5mW
*.host*.wlan[0].radio.energyConsumer.receiverReceivingPowerConsumption = 10mW
*.host*.wlan[0].radio.energyConsumer.transmitterIdlePowerConsumption = 2mW
*.host*.wlan[0].radio.energyConsumer.transmitterTransmittingPowerConsumption = 100mW

*.host*.energyStorage.typename = "IdealEpEnergyStorage"

*.host*.wlan[0].radio.displayInterferenceRange = false
*.hostR1.wlan[0].radio.displayCommunicationRange = true

*.visualizer.mediumVisualizer.displaySignals = false




*.hostR*.mobility.typename = "LinearMobility"
*.hostR*.mobility.speed = 12mps
*.hostR*.mobility.initialMovementHeading = 270deg

*.host*.wlan[0].queue.packetCapacity = 10

*.visualizer.mobilityVisualizer.displayVelocities = true
*.visualizer.mobilityVisualizer.displayMovementTrails = true




*.configurator.addStaticRoutes = false

*.host*.typename = "AodvRouter"

*.hostB.wlan[0].radio.displayCommunicationRange = true

*.visualizer.dataLinkVisualizer.packetFilter = "AODV*"

